So Boeing does it mean ?It means they may cut jobs , " said Kevin Michaels , the managing director at AeroDynamic Advisory , a specialized market analysis company in Ann Arbor , the company  —   the nation’s single largest exporter by dollar volume  —    "