It means they may cut jobs," said Kevin Michaels, the managing director at AeroDynamic Advisory, a specialized market analysis company in Ann Arbor, Mich. "It’s a very complex field. " And one that is already changing. 