For workers and suppliers, the fallout could be brutal. " So what does it mean? It means they may cut jobs," said Kevin Michaels, the managing director at AeroDynamic Advisory, a specialized market analysis company in Ann Arbor, 